8
Lattice="5.7501826286 0.0 0.0 0.0 5.7501826286 0.0 0.0 0.0 5.7501826286" Properties=species:S:1:id:I:1:pos:R:3
Ga 1 0.0 0.0 0.0
Ga 2 0.0 2.8750913143 2.8750913143
Ga 3 2.8750913143 0.0 2.8750913143
Ga 4 2.8750913143 2.8750913143 0.0
As 5 1.4375456572 1.4375456572 4.3126369714
As 6 4.3126369714 4.3126369714 4.3126369714
As 7 4.3126369714 1.4375456572 1.4375456572
As 8 1.4375456572 4.3126369714 1.4375456572
